Distrib/IEEETestCases/ShortCircuitCases/123Bus/ieee123_FaultStudy.Txt
FAULT STUDY REPORT

ALL-Node Fault Currents

Bus            Node 1  X/R        Node 2  X/R        Node 3  X/R   ...  (Amps)

"150",      24017771, 9999.0,   24017771, 9999.0,   24017771, 9999.0
"150r",     17197367, 383.8,   17197367, 385.5,   17197367, 384.7
"149",      17196653, 105.2,   17196653, 105.3,   17196653, 105.3
"1",           45481,   1.5,      51995,   2.1,      45049,   2.5
"2",           16957,   1.5
"3",           14231,   1.4
"7",           26011,   1.5,      29744,   2.1,      25761,   2.4
"4",           10102,   1.3
"5",            8547,   1.2
"6",            6529,   1.2
"8",           20234,   1.5,      23142,   2.1,      20040,   2.4
"12",           9235,   1.6
"9",            8987,   1.7
"13",          15170,   1.4,      17360,   2.0,      15033,   2.4
"9r",           8978,   1.7
"14",           5780,   1.4
"34",           7966,   1.8
"18",           9390,   1.7,       9653,   2.2,       8797,   2.0
"11",           4770,   1.3
"10",           4769,   1.3
"15",           7156,   1.7
"16",           5160,   1.4
"17",           5257,   1.5
"19",           4693,   1.8
"21",           8237,   1.7,       8296,   2.2,       7647,   1.9
"20",           3839,   1.6
"22",           3671,   1.7
"23",           7472,   1.8,       7425,   2.3,       6899,   1.9
"24",           3274,   1.7
"25",           6780,   1.8,       6656,   2.3,       6228,   1.8
"25r",          5925,   4.8,       5816,   1.1
"26",           5220,   4.9,       5133,   1.1
"28",           6351,   1.8,       6190,   2.3,       5817,   1.8
"27",           4773,   4.9,       4698,   1.1
"31",           3165,   2.0
"33",           2615,   1.8
"29",           5800,   1.8,       5602,   2.3,       5293,   1.8
"30",           5266,   1.8,       5042,   2.3,       4790,   1.8
"250",          5002,   1.9,       4770,   2.4,       4543,   1.8
"32",           2788,   1.8
"35",           7766,   1.7,       8120,   2.1,       7537,   2.1
"36",           5404,   1.0,       5616,   5.0
"40",           6994,   1.7,       7392,   2.1,       6811,   2.1
"37",           3185,   1.9
"38",           3366,   1.9
"39",           2918,   1.7
"41",           3590,   1.8
"42",           6363,   1.7,       6783,   2.1,       6212,   2.1
"43",           3155,   1.7
"44",           5934,   1.7,       6363,   2.1,       5804,   2.2
"45",           3308,   1.9
"47",           5471,   1.6,       5906,   2.1,       5364,   2.2
"46",           2891,   1.7
"48",           5213,   1.7,       5643,   2.1,       5153,   2.2
"49",           5053,   1.7,       5481,   2.0,       5021,   2.2
"50",           4694,   1.7,       5111,   2.0,       4718,   2.2
"51",           4382,   1.7,       4788,   2.0,       4448,   2.3
"151",          3613,   1.7,       3986,   1.9,       3761,   2.3
"52",          11336,   1.4,      12996,   2.0,      11246,   2.4
"53",          10062,   1.4,      11545,   2.0,       9988,   2.3
"54",           9401,   1.4,      10792,   2.0,       9336,   2.3
"55",           8191,   1.4,       9423,   2.0,       8148,   2.4
"57",           7884,   1.5,       8913,   1.9,       8062,   2.3
"56",           7256,   1.4,       8362,   2.0,       7228,   2.4
"58",           4353,   1.7
"60",           5877,   1.6,       6493,   1.8,       6237,   2.2
"59",           3772,   1.6
"61",           5011,   1.6,       5478,   1.9,       5173,   2.2
"62",           5265,   1.4,       5837,   1.5,       5622,   1.8
"63",           4896,   1.3,       5436,   1.4,       5245,   1.6
"64",           4276,   1.1,       4760,   1.2,       4606,   1.4
"65",           3692,   1.0,       4112,   1.0,       3995,   1.2
"66",           3335,   0.9,       3715,   1.0,       3617,   1.1
"67",           5098,   1.7,       5679,   1.8,       5448,   2.1
"68",           2934,   1.8
"72",           4724,   1.7,       5225,   1.8,       5084,   2.1
"97",           4760,   1.7,       5264,   1.8,       5117,   2.1
"69",           2639,   1.6
"70",           2354,   1.5
"71",           2156,   1.5
"73",           2738,   1.7
"76",           4485,   1.7,       4939,   1.7,       4847,   2.1
"74",           2415,   1.6
"75",           2124,   1.5
"77",           4110,   1.8,       4424,   1.8,       4398,   2.0
"86",           3813,   1.8,       4144,   1.7,       4167,   2.1
"78",           4026,   1.8,       4312,   1.8,       4299,   2.0
"79",           3851,   1.8,       4081,   1.8,       4093,   2.0
"80",           3668,   1.9,       3846,   1.8,       3884,   1.9
"81",           3552,   1.9,       3698,   1.8,       3751,   1.9
"82",           3398,   1.9,       3506,   1.8,       3575,   1.9
"84",           1836,   1.6
"83",           3256,   1.9,       3332,   1.8,       3415,   1.9
"85",           1636,   1.6
"87",           3511,   1.9,       3739,   1.7,       3796,   2.0
"88",           2071,   1.8
"89",           3350,   1.9,       3527,   1.7,       3601,   2.0
"90",           2004,   1.8
"91",           3228,   1.9,       3371,   1.7,       3456,   2.0
"92",           1884,   1.8
"93",           3115,   1.9,       3228,   1.7,       3322,   2.0
"94",           1782,   1.8
"95",           2975,   2.0,       3055,   1.8,       3160,   1.9
"96",           1792,   1.9
"98",           4433,   1.7,       4871,   1.8,       4794,   2.1
"99",           3898,   1.8,       4238,   1.7,       4256,   2.1
"100",          3657,   1.9,       3956,   1.7,       4010,   2.1
"450",          3141,   1.9,       3362,   1.7,       3474,   2.1
"101",          4823,   2.1,       4463,   1.7,       4905,   1.8
"102",          2655,   1.8
"105",          4177,   1.8,       4563,   1.8,       4534,   2.1
"103",          2370,   1.6
"104",          1919,   1.5
"106",          2544,   1.8
"108",          3883,   1.8,       4213,   1.7,       4234,   2.1
"107",          2112,   1.6
"109",          2127,   1.7
"300",          3186,   1.9,       3410,   1.7,       3517,   2.1
"110",          1953,   1.6
"111",          1683,   1.5
"112",          1888,   1.6
"113",          1656,   1.5
"114",          1537,   1.5
"135",          9390,   1.7,       9653,   2.2,       8797,   2.0
"152",         15170,   1.4,      17360,   2.0,      15033,   2.4
"160r",         5593,   1.6,       6409,   1.8,       6044,   2.2
"197",          4760,   1.7,       5264,   1.8,       5117,   2.1
"160",          5877,   1.6,       6493,   1.8,       6237,   2.2
"61s",          5011,   1.6,       5478,   1.9,       5173,   2.2
"300_open",      3613,   1.7,       3986,   1.9,       3761,   2.3
"94_open",      5840,   2.0
"610",          5229,   2.1,       5347,   2.1,       5319,   2.1


ONE-Node to ground Faults

                                      pu Node Voltages (L-N Volts if no base)
Bus        Node      Amps         Node 1     Node 2     Node 3    ...

"150"        1    24017766         0.000      1.000      1.000
"150"        2    24017751         1.000      0.000      1.000
"150"        3    24017771         1.000      1.000      0.000
"150r"       1    17197362         0.000      1.037      1.037
"150r"       2    17197348         1.037      0.000      1.037
"150r"       3    17197367         1.037      1.037      0.000
"149"        1    17196647         0.000      1.037      1.037
"149"        2    17196633         1.037      0.000      1.037
"149"        3    17196652         1.037      1.037      0.000
"1"          1       28175         0.000      1.348      1.246
"1"          2       28895         1.286      0.000      1.292
"1"          3       28438         1.251      1.269      0.000
"2"          1       16957         0.000
"3"          1       14231         0.000
"7"          1       16152         0.000      1.339      1.239
"7"          2       16630         1.275      0.000      1.282
"7"          3       16311         1.236      1.266      0.000
"4"          1       10102         0.000
"5"          1        8547         0.000
"6"          1        6529         0.000
"8"          1       12587         0.000      1.332      1.235
"8"          2       12993         1.268      0.000      1.275
"8"          3       12717         1.227      1.264      0.000
"12"         1        9235         0.000
"9"          1        8987         0.000
"13"         1        9460         0.000      1.323      1.229
"13"         2        9800         1.259      0.000      1.265
"13"         3        9569         1.214      1.261      0.000
"9r"         1        8978         0.000
"14"         1        5780         0.000
"34"         1        7966         0.000
"18"         1        5641         0.000      1.293      1.235
"18"         2        5789         1.236      0.000      1.239
"18"         3        5636         1.240      1.245      0.000
"11"         1        4770         0.000
"10"         1        4769         0.000
"15"         1        7156         0.000
"16"         1        5160         0.000
"17"         1        5257         0.000
"19"         1        4693         0.000
"21"         1        4897         0.000      1.290      1.237
"21"         2        5019         1.233      0.000      1.237
"21"         3        4886         1.248      1.244      0.000
"20"         1        3839         0.000
"22"         1        3671         0.000
"23"         1        4413         0.000      1.289      1.238
"23"         2        4518         1.231      0.000      1.235
"23"         3        4398         1.253      1.243      0.000
"24"         1        3274         0.000
"25"         1        3980         0.000      1.287      1.239
"25"         2        4070         1.229      0.000      1.233
"25"         3        3961         1.257      1.243      0.000
"25r"        1        3929         0.000      1.239
"25r"        2        3959         1.273      0.000
"26"         1        3490         0.000      1.236
"26"         2        3516         1.268      0.000
"28"         1        3713         0.000      1.286      1.240
"28"         2        3796         1.228      0.000      1.233
"28"         3        3693         1.260      1.242      0.000
"27"         1        3208         0.000      1.235
"27"         2        3231         1.264      0.000
"31"         1        3165         0.000
"33"         1        2615         0.000
"29"         1        3372         0.000      1.285      1.241
"29"         2        3447         1.227      0.000      1.232
"29"         3        3352         1.264      1.242      0.000
"30"         1        3045         0.000      1.285      1.242
"30"         2        3113         1.226      0.000      1.232
"30"         3        3026         1.269      1.241      0.000
"250"        1        2885         0.000      1.284      1.243
"250"        2        2949         1.226      0.000      1.232
"250"        3        2866         1.271      1.241      0.000
"32"         1        2788         0.000
"35"         1        4747         0.000      1.283      1.230
"35"         2        4887         1.230      0.000      1.251
"35"         3        4749         1.230      1.246      0.000
"36"         1        3689         0.000      1.271
"36"         2        3810         1.223      0.000
"40"         1        4289         0.000      1.284      1.227
"40"         2        4427         1.229      0.000      1.250
"40"         3        4300         1.226      1.245      0.000
"37"         1        3185         0.000
"38"         1        3366         0.000
"39"         1        2918         0.000
"41"         1        3590         0.000
"42"         1        3912         0.000      1.284      1.225
"42"         2        4048         1.228      0.000      1.249
"42"         3        3930         1.221      1.243      0.000
"43"         1        3155         0.000
"44"         1        3655         0.000      1.284      1.223
"44"         2        3787         1.227      0.000      1.248
"44"         3        3676         1.219      1.242      0.000
"45"         1        3308         0.000
"47"         1        3377         0.000      1.284      1.220
"47"         2        3505         1.226      0.000      1.246
"47"         3        3402         1.215      1.241      0.000
"46"         1        2891         0.000
"48"         1        3228         0.000      1.283      1.220
"48"         2        3351         1.225      0.000      1.249
"48"         3        3252         1.215      1.241      0.000
"49"         1        3135         0.000      1.282      1.219
"49"         2        3255         1.225      0.000      1.251
"49"         3        3159         1.214      1.242      0.000
"50"         1        2923         0.000      1.280      1.219
"50"         2        3036         1.224      0.000      1.256
"50"         3        2945         1.214      1.243      0.000
"51"         1        2738         0.000      1.279      1.218
"51"         2        2845         1.223      0.000      1.261
"51"         3        2758         1.213      1.245      0.000
"151"        1        2274         0.000      1.276      1.217
"151"        2        2366         1.221      0.000      1.273
"151"        3        2291         1.213      1.248      0.000
"52"         1        7051         0.000      1.318      1.226
"52"         2        7338         1.254      0.000      1.261
"52"         3        7149         1.207      1.260      0.000
"53"         1        6253         0.000      1.315      1.225
"53"         2        6521         1.252      0.000      1.259
"53"         3        6348         1.203      1.260      0.000
"54"         1        5840         0.000      1.314      1.224
"54"         2        6097         1.250      0.000      1.257
"54"         3        5933         1.201      1.259      0.000
"55"         1        5081         0.000      1.315      1.223
"55"         2        5314         1.249      0.000      1.260
"55"         3        5168         1.204      1.259      0.000
"57"         1        4937         0.000      1.295      1.225
"57"         2        5134         1.240      0.000      1.261
"57"         3        5025         1.202      1.261      0.000
"56"         1        4496         0.000      1.317      1.223
"56"         2        4709         1.249      0.000      1.261
"56"         3        4578         1.206      1.258      0.000
"58"         1        4353         0.000
"60"         1        3712         0.000      1.265      1.224
"60"         2        3834         1.225      0.000      1.261
"60"         3        3784         1.200      1.263      0.000
"59"         1        3772         0.000
"61"         1        3124         0.000      1.275      1.224
"61"         2        3220         1.225      0.000      1.255
"61"         3        3179         1.206      1.257      0.000
"62"         1        3363         0.000      1.262      1.217
"62"         2        3484         1.217      0.000      1.258
"62"         3        3430         1.196      1.255      0.000
"63"         1        3149         0.000      1.260      1.213
"63"         2        3266         1.212      0.000      1.256
"63"         3        3212         1.194      1.250      0.000
"64"         1        2781         0.000      1.254      1.207
"64"         2        2892         1.205      0.000      1.251
"64"         3        2838         1.191      1.241      0.000
"65"         1        2425         0.000      1.251      1.201
"65"         2        2524         1.198      0.000      1.246
"65"         3        2474         1.187      1.236      0.000
"66"         1        2204         0.000      1.248      1.197
"66"         2        2295         1.195      0.000      1.243
"66"         3        2250         1.185      1.233      0.000
"67"         1        3192         0.000      1.274      1.265
"67"         2        3395         1.281      0.000      1.293
"67"         3        3301         1.265      1.278      0.000
"68"         1        2934         0.000
"72"         1        2958         0.000      1.271      1.267
"72"         2        3128         1.280      0.000      1.296
"72"         3        3055         1.267      1.279      0.000
"97"         1        2988         0.000      1.270      1.264
"97"         2        3162         1.276      0.000      1.295
"97"         3        3085         1.264      1.277      0.000
"69"         1        2639         0.000
"70"         1        2354         0.000
"71"         1        2156         0.000
"73"         1        2738         0.000
"76"         1        2806         0.000      1.269      1.269
"76"         2        2957         1.279      0.000      1.299
"76"         3        2895         1.269      1.280      0.000
"74"         1        2415         0.000
"75"         1        2124         0.000
"77"         1        2541         0.000      1.268      1.274
"77"         2        2667         1.279      0.000      1.299
"77"         3        2618         1.279      1.282      0.000
"86"         1        2390         0.000      1.262      1.271
"86"         2        2499         1.273      0.000      1.306
"86"         3        2462         1.271      1.280      0.000
"78"         1        2482         0.000      1.268      1.275
"78"         2        2603         1.279      0.000      1.299
"78"         3        2557         1.282      1.283      0.000
"79"         1        2365         0.000      1.267      1.276
"79"         2        2475         1.277      0.000      1.298
"79"         3        2434         1.285      1.282      0.000
"80"         1        2235         0.000      1.269      1.280
"80"         2        2334         1.280      0.000      1.300
"80"         3        2299         1.293      1.286      0.000
"81"         1        2155         0.000      1.269      1.282
"81"         2        2248         1.281      0.000      1.300
"81"         3        2216         1.297      1.287      0.000
"82"         1        2050         0.000      1.270      1.285
"82"         2        2134         1.282      0.000      1.301
"82"         3        2106         1.302      1.289      0.000
"84"         1        1836         0.000
"83"         1        1954         0.000      1.271      1.288
"83"         2        2031         1.283      0.000      1.303
"83"         3        2006         1.307      1.291      0.000
"85"         1        1636         0.000
"87"         1        2181         0.000      1.259      1.273
"87"         2        2274         1.270      0.000      1.304
"87"         3        2245         1.278      1.277      0.000
"88"         1        2071         0.000
"89"         1        2070         0.000      1.258      1.274
"89"         2        2155         1.268      0.000      1.303
"89"         3        2130         1.282      1.276      0.000
"90"         1        2004         0.000
"91"         1        1988         0.000      1.257      1.275
"91"         2        2066         1.266      0.000      1.302
"91"         3        2045         1.285      1.275      0.000
"92"         1        1884         0.000
"93"         1        1912         0.000      1.256      1.276
"93"         2        1985         1.265      0.000      1.302
"93"         3        1966         1.288      1.274      0.000
"94"         1        1782         0.000
"95"         1        1818         0.000      1.255      1.277
"95"         2        1885         1.263      0.000      1.301
"95"         3        1870         1.291      1.273      0.000
"96"         1        1792         0.000
"98"         1        2786         0.000      1.268      1.264
"98"         2        2936         1.273      0.000      1.298
"98"         3        2873         1.266      1.277      0.000
"99"         1        2453         0.000      1.265      1.263
"99"         2        2567         1.269      0.000      1.303
"99"         3        2525         1.270      1.277      0.000
"100"        1        2303         0.000      1.264      1.263
"100"        2        2401         1.267      0.000      1.306
"100"        3        2368         1.272      1.278      0.000
"450"        1        1979         0.000      1.262      1.263
"450"        2        2048         1.263      0.000      1.312
"450"        3        2030         1.276      1.279      0.000
"101"        1        2894         0.000      1.265      1.277
"101"        2        2807         1.264      0.000      1.268
"101"        3        2958         1.297      1.273      0.000
"102"        1        2655         0.000
"105"        1        2630         0.000      1.266      1.264
"105"        2        2761         1.269      0.000      1.300
"105"        3        2706         1.265      1.277      0.000
"103"        1        2370         0.000
"104"        1        1919         0.000
"106"        1        2544         0.000
"108"        1        2447         0.000      1.264      1.264
"108"        2        2558         1.265      0.000      1.303
"108"        3        2513         1.265      1.278      0.000
"107"        1        2112         0.000
"109"        1        2127         0.000
"300"        1        2008         0.000      1.262      1.264
"300"        2        2081         1.259      0.000      1.311
"300"        3        2057         1.271      1.279      0.000
"110"        1        1953         0.000
"111"        1        1683         0.000
"112"        1        1888         0.000
"113"        1        1656         0.000
"114"        1        1537         0.000
"135"        1        5641         0.000      1.293      1.235
"135"        2        5789         1.236      0.000      1.239
"135"        3        5636         1.240      1.245      0.000
"152"        1        9460         0.000      1.323      1.229
"152"        2        9800         1.259      0.000      1.265
"152"        3        9569         1.214      1.261      0.000
"160r"       1        3533         0.000      1.281      1.263
"160r"       2        3786         1.286      0.000      1.300
"160r"       3        3668         1.259      1.278      0.000
"197"        1        2988         0.000      1.270      1.264
"197"        2        3162         1.276      0.000      1.295
"197"        3        3085         1.264      1.277      0.000
"160"        1        3712         0.000      1.265      1.224
"160"        2        3834         1.225      0.000      1.261
"160"        3        3784         1.200      1.263      0.000
"61s"        1        3124         0.000      1.275      1.224
"61s"        2        3220         1.225      0.000      1.255
"61s"        3        3179         1.206      1.257      0.000
"300_open"   1        2274         0.000      1.276      1.217
"300_open"   2        2366         1.221      0.000      1.273
"300_open"   3        2291         1.213      1.248      0.000
"94_open"    1        5840         0.000
"610"        1           0         0.000      1.717      1.724
"610"        2           0         1.717      0.000      1.747
"610"        3           0         1.724      1.747      0.000

Adjacent Node-Node Faults

                                        pu Node Voltages (L-N Volts if no base)
Bus          Node-Node      Amps        Node 1     Node 2     Node 3    ...

"150"        1   2    18603848         0.864      0.232      1.000
"150"        2   3    18603937         1.000      0.864      0.231
"150r"       1   2    14067373         0.801      0.261      1.037
"150r"       2   3    14067456         1.037      0.801      0.261
"149"        1   2    14037061         0.800      0.262      1.037
"149"        2   3    14037143         1.037      0.800      0.262
"1"          1   2       44359         0.531      0.529      1.051
"1"          2   3       40459         0.974      0.509      0.508
"7"          1   2       25358         0.527      0.526      1.046
"7"          2   3       23168         0.966      0.507      0.506
"8"          1   2       19719         0.524      0.524      1.042
"8"          2   3       18038         0.961      0.505      0.505
"13"         1   2       14779         0.521      0.521      1.036
"13"         2   3       13545         0.954      0.503      0.503
"18"         1   2        8379         0.509      0.508      0.993
"18"         2   3        7771         0.979      0.503      0.503
"21"         1   2        7224         0.507      0.507      0.985
"21"         2   3        6719         0.985      0.503      0.503
"23"         1   2        6479         0.507      0.506      0.981
"23"         2   3        6038         0.989      0.504      0.504
"25"         1   2        5819         0.506      0.506      0.977
"25"         2   3        5431         0.992      0.504      0.504
"25r"        1   2        5714         0.502      0.502
"26"         1   2        5034         0.500      0.500
"28"         1   2        5417         0.505      0.505      0.975
"28"         2   3        5061         0.994      0.504      0.504
"27"         1   2        4603         0.499      0.499
"29"         1   2        4908         0.505      0.505      0.972
"29"         2   3        4591         0.998      0.504      0.504
"30"         1   2        4422         0.506      0.505      0.969
"30"         2   3        4143         1.001      0.504      0.504
"250"        1   2        4186         0.506      0.505      0.968
"250"        2   3        3923         1.003      0.504      0.504
"35"         1   2        6993         0.509      0.509      1.004
"35"         2   3        6669         0.976      0.501      0.500
"36"         1   2        5339         0.510      0.510
"40"         1   2        6354         0.510      0.510      1.005
"40"         2   3        6041         0.971      0.500      0.500
"42"         1   2        5822         0.510      0.510      1.005
"42"         2   3        5520         0.966      0.499      0.499
"44"         1   2        5455         0.510      0.510      1.006
"44"         2   3        5164         0.963      0.499      0.499
"47"         1   2        5057         0.511      0.511      1.006
"47"         2   3        4779         0.960      0.498      0.498
"48"         1   2        4824         0.511      0.511      1.008
"48"         2   3        4590         0.960      0.498      0.498
"49"         1   2        4679         0.511      0.511      1.010
"49"         2   3        4473         0.960      0.497      0.497
"50"         1   2        4352         0.511      0.511      1.014
"50"         2   3        4202         0.960      0.497      0.497
"51"         1   2        4068         0.512      0.511      1.017
"51"         2   3        3962         0.960      0.497      0.497
"151"        1   2        3364         0.512      0.512      1.026
"151"        2   3        3349         0.961      0.496      0.496
"52"         1   2       11050         0.520      0.520      1.033
"52"         2   3       10144         0.948      0.502      0.501
"53"         1   2        9811         0.520      0.519      1.031
"53"         2   3        9014         0.946      0.501      0.500
"54"         1   2        9168         0.519      0.519      1.030
"54"         2   3        8427         0.945      0.500      0.500
"55"         1   2        7998         0.520      0.520      1.030
"55"         2   3        7355         0.944      0.500      0.500
"57"         1   2        7543         0.515      0.515      1.030
"57"         2   3        7225         0.948      0.502      0.502
"56"         1   2        7093         0.521      0.521      1.029
"56"         2   3        6525         0.943      0.500      0.500
"60"         1   2        5459         0.509      0.509      1.028
"60"         2   3        5532         0.952      0.505      0.504
"61"         1   2        4641         0.507      0.507      1.020
"61"         2   3        4588         0.950      0.505      0.505
"62"         1   2        4904         0.510      0.510      1.028
"62"         2   3        4974         0.948      0.502      0.502
"63"         1   2        4566         0.511      0.511      1.028
"63"         2   3        4633         0.946      0.501      0.500
"64"         1   2        3996         0.512      0.512      1.027
"64"         2   3        4059         0.944      0.498      0.497
"65"         1   2        3453         0.514      0.514      1.025
"65"         2   3        3510         0.942      0.495      0.495
"66"         1   2        3120         0.515      0.515      1.024
"66"         2   3        3172         0.942      0.493      0.493
"67"         1   2        4712         0.526      0.526      1.049
"67"         2   3        4845         1.005      0.516      0.516
"72"         1   2        4337         0.525      0.525      1.049
"72"         2   3        4507         1.008      0.517      0.517
"97"         1   2        4371         0.524      0.524      1.050
"97"         2   3        4537         1.007      0.517      0.517
"76"         1   2        4100         0.525      0.524      1.051
"76"         2   3        4288         1.010      0.517      0.517
"77"         1   2        3691         0.525      0.525      1.045
"77"         2   3        3871         1.019      0.518      0.518
"86"         1   2        3442         0.523      0.523      1.055
"86"         2   3        3665         1.015      0.517      0.517
"78"         1   2        3601         0.525      0.525      1.043
"78"         2   3        3779         1.021      0.518      0.518
"79"         1   2        3416         0.525      0.525      1.040
"79"         2   3        3589         1.025      0.519      0.518
"80"         1   2        3227         0.526      0.526      1.038
"80"         2   3        3396         1.031      0.520      0.519
"81"         1   2        3107         0.527      0.527      1.036
"81"         2   3        3273         1.034      0.520      0.520
"82"         1   2        2951         0.527      0.527      1.035
"82"         2   3        3112         1.038      0.521      0.521
"83"         1   2        2810         0.528      0.528      1.033
"83"         2   3        2966         1.042      0.522      0.521
"87"         1   2        3120         0.523      0.523      1.048
"87"         2   3        3324         1.023      0.517      0.517
"89"         1   2        2951         0.523      0.523      1.044
"89"         2   3        3145         1.027      0.517      0.517
"91"         1   2        2826         0.523      0.523      1.042
"91"         2   3        3012         1.029      0.518      0.518
"93"         1   2        2711         0.523      0.522      1.040
"93"         2   3        2890         1.032      0.518      0.518
"95"         1   2        2571         0.523      0.523      1.037
"95"         2   3        2742         1.035      0.518      0.518
"98"         1   2        4046         0.523      0.523      1.051
"98"         2   3        4238         1.009      0.517      0.517
"99"         1   2        3522         0.523      0.523      1.053
"99"         2   3        3745         1.014      0.518      0.518
"100"        1   2        3289         0.523      0.523      1.053
"100"        2   3        3522         1.015      0.519      0.518
"450"        1   2        2795         0.522      0.522      1.056
"450"        2   3        3037         1.020      0.520      0.520
"101"        1   2        3932         0.502      0.502      1.020
"101"        2   3        4075         1.051      0.523      0.523
"105"        1   2        3792         0.522      0.522      1.053
"105"        2   3        3999         1.009      0.518      0.518
"108"        1   2        3503         0.520      0.520      1.055
"108"        2   3        3725         1.010      0.519      0.519
"300"        1   2        2836         0.519      0.519      1.057
"300"        2   3        3076         1.016      0.521      0.521
"135"        1   2        8379         0.509      0.508      0.993
"135"        2   3        7771         0.979      0.503      0.503
"152"        1   2       14779         0.521      0.521      1.036
"152"        2   3       13545         0.954      0.503      0.503
"160r"       1   2        5285         0.528      0.528      1.058
"160r"       2   3        5409         0.999      0.516      0.515
"197"        1   2        4371         0.524      0.524      1.050
"197"        2   3        4537         1.007      0.517      0.517
"160"        1   2        5459         0.509      0.509      1.028
"160"        2   3        5532         0.952      0.505      0.504
"61s"        1   2        4641         0.507      0.507      1.020
"61s"        2   3        4588         0.950      0.505      0.505
"300_open"   1   2        3364         0.512      0.512      1.026
"300_open"   2   3        3349         0.961      0.496      0.496
"610"        1   2        4573         0.504      0.503      1.007
"610"        2   3        4637         0.986      0.494      0.492
